# generated using pymatgen
data_BeCdSe2
_symmetry_space_group_name_H-M   'P 1'
_cell_length_a   3.63053542
_cell_length_b   3.63053542
_cell_length_c   6.37715775
_cell_angle_alpha   90.00000000
_cell_angle_beta   90.00000000
_cell_angle_gamma   90.00000000
_symmetry_Int_Tables_number   1
_chemical_formula_structural   BeCdSe2
_chemical_formula_sum   'Be1 Cd1 Se2'
_cell_volume   84.05596058
_cell_formula_units_Z   1
loop_
 _symmetry_equiv_pos_site_id
 _symmetry_equiv_pos_as_xyz
  1  'x, y, z'
loop_
 _atom_site_type_symbol
 _atom_site_label
 _atom_site_symmetry_multiplicity
 _atom_site_fract_x
 _atom_site_fract_y
 _atom_site_fract_z
 _atom_site_occupancy
  Be  Be0  1  0.00000000  0.00000000  0.31106125  1
  Cd  Cd1  1  0.50000000  0.50000000  0.81537233  1
  Se  Se2  1  0.00000000  0.00000000  0.97082542  1
  Se  Se3  1  0.50000000  0.50000000  0.40274199  1
