# generated using pymatgen
data_KTe
_symmetry_space_group_name_H-M   'P 1'
_cell_length_a   9.48790813
_cell_length_b   9.48790813
_cell_length_c   6.46099053
_cell_angle_alpha   90.00000000
_cell_angle_beta   90.00000000
_cell_angle_gamma   120.00000000
_symmetry_Int_Tables_number   1
_chemical_formula_structural   KTe
_chemical_formula_sum   'K6 Te6'
_cell_volume   503.69852421
_cell_formula_units_Z   6
loop_
 _symmetry_equiv_pos_site_id
 _symmetry_equiv_pos_as_xyz
  1  'x, y, z'
loop_
 _atom_site_type_symbol
 _atom_site_label
 _atom_site_symmetry_multiplicity
 _atom_site_fract_x
 _atom_site_fract_y
 _atom_site_fract_z
 _atom_site_occupancy
  K  K0  1  0.65487176  0.00000000  0.00000000  1
  K  K1  1  0.34512824  0.34512824  0.00000000  1
  K  K2  1  0.00000000  0.65487176  0.00000000  1
  K  K3  1  0.32173010  0.00000000  0.50000000  1
  K  K4  1  0.67826990  0.67826990  0.50000000  1
  K  K5  1  -0.00000000  0.32173010  0.50000000  1
  Te  Te6  1  0.00000000  0.00000000  0.22031959  1
  Te  Te7  1  0.00000000  0.00000000  0.77968041  1
  Te  Te8  1  0.33333333  0.66666667  0.27761943  1
  Te  Te9  1  0.33333333  0.66666667  0.72238057  1
  Te  Te10  1  0.66666667  0.33333333  0.72238057  1
  Te  Te11  1  0.66666667  0.33333333  0.27761943  1
