# generated using pymatgen
data_SnS2
_symmetry_space_group_name_H-M   'P 1'
_cell_length_a   6.57892993
_cell_length_b   6.57892993
_cell_length_c   6.57892993
_cell_angle_alpha   129.67282036
_cell_angle_beta   129.67282036
_cell_angle_gamma   73.93035941
_symmetry_Int_Tables_number   1
_chemical_formula_structural   SnS2
_chemical_formula_sum   'Sn2 S4'
_cell_volume   164.53877527
_cell_formula_units_Z   2
loop_
 _symmetry_equiv_pos_site_id
 _symmetry_equiv_pos_as_xyz
  1  'x, y, z'
loop_
 _atom_site_type_symbol
 _atom_site_label
 _atom_site_symmetry_multiplicity
 _atom_site_fract_x
 _atom_site_fract_y
 _atom_site_fract_z
 _atom_site_occupancy
  S  S0  1  0.87500000  0.85655321  0.48155321  1
  S  S1  1  0.14344679  0.62500000  0.01844679  1
  S  S2  1  0.37500000  0.39344679  0.51844679  1
  S  S3  1  0.60655321  0.12500000  0.98155321  1
  Sn  Sn4  1  0.75000000  0.25000000  0.50000000  1
  Sn  Sn5  1  0.00000000  0.00000000  -0.00000000  1
