# generated using pymatgen
data_Te3Mo2Se
_symmetry_space_group_name_H-M   'P 1'
_cell_length_a   3.50871001
_cell_length_b   3.50871001
_cell_length_c   13.97084277
_cell_angle_alpha   90.00000000
_cell_angle_beta   90.00000000
_cell_angle_gamma   120.00000000
_symmetry_Int_Tables_number   1
_chemical_formula_structural   Te3Mo2Se
_chemical_formula_sum   'Te3 Mo2 Se1'
_cell_volume   148.95263446
_cell_formula_units_Z   1
loop_
 _symmetry_equiv_pos_site_id
 _symmetry_equiv_pos_as_xyz
  1  'x, y, z'
loop_
 _atom_site_type_symbol
 _atom_site_label
 _atom_site_symmetry_multiplicity
 _atom_site_fract_x
 _atom_site_fract_y
 _atom_site_fract_z
 _atom_site_occupancy
  Mo  Mo0  1  0.00000000  0.00000000  0.75492997  1
  Mo  Mo1  1  0.66666667  0.33333333  0.23897249  1
  Se  Se2  1  0.00000000  0.00000000  0.12461527  1
  Te  Te3  1  0.66666667  0.33333333  0.88636881  1
  Te  Te4  1  0.66666667  0.33333333  0.62380029  1
  Te  Te5  1  0.00000000  0.00000000  0.37131417  1
