# generated using pymatgen
data_Al2ZnS4
_symmetry_space_group_name_H-M   'P 1'
_cell_length_a   3.68388961
_cell_length_b   3.68388961
_cell_length_c   11.82440210
_cell_angle_alpha   90.00000000
_cell_angle_beta   90.00000000
_cell_angle_gamma   120.00000000
_symmetry_Int_Tables_number   1
_chemical_formula_structural   Al2ZnS4
_chemical_formula_sum   'Al2 Zn1 S4'
_cell_volume   138.97063381
_cell_formula_units_Z   1
loop_
 _symmetry_equiv_pos_site_id
 _symmetry_equiv_pos_as_xyz
  1  'x, y, z'
loop_
 _atom_site_type_symbol
 _atom_site_label
 _atom_site_symmetry_multiplicity
 _atom_site_fract_x
 _atom_site_fract_y
 _atom_site_fract_z
 _atom_site_occupancy
  Al  Al0  1  0.00000000  0.00000000  0.92441209  1
  Al  Al1  1  0.66666667  0.33333333  0.61556665  1
  S  S2  1  0.33333333  0.66666667  0.99730896  1
  S  S3  1  0.33333333  0.66666667  0.51919585  1
  S  S4  1  0.00000000  0.00000000  0.73407867  1
  S  S5  1  0.00000000  0.00000000  0.23941220  1
  Zn  Zn6  1  0.33333333  0.66666667  0.30202559  1
